MVA-5.sdf
  ChemDraw01252323463D

 21 22  0  0  1  0  0  0  0  0999 V2000
   -3.2444    1.7955   -2.2080 O   0  5  0  0  0  0  0  0  0  0  0  0
   -2.5763    0.2130   -1.5783 C   0  0  0  0  0  0  0  0  0  0  0  0
   -2.1721   -0.0735    0.3171 C   0  0  0  0  0  0  0  0  0  0  0  0
   -0.3296    0.4457    0.8575 C   0  0  0  0  0  0  0  0  0  0  0  0
   -2.3899   -1.0846   -2.6305 O   0  0  0  0  0  0  0  0  0  0  0  0
    1.2365   -0.4209   -0.0308 C   0  0  0  0  0  0  0  0  0  0  0  0
   -0.1882    0.1494    2.6885 O   0  0  0  0  0  0  0  0  0  0  0  0
    1.3280   -0.2041   -2.0145 C   0  0  0  0  0  0  0  0  0  0  0  0
    2.2594   -1.6642   -2.6885 O   0  0  0  0  0  0  0  0  0  0  0  0
   -0.3015    2.3807    0.5912 C   0  0  0  0  0  0  0  0  0  0  0  0
   -0.3064    3.1874   -1.0345 C   0  0  0  0  0  0  0  0  0  0  0  0
   -0.7422    4.9562   -1.1113 C   0  0  0  0  0  0  0  0  0  0  0  0
   -1.2366    5.8700    0.3869 C   0  0  0  0  0  0  0  0  0  0  0  0
   -0.9333    5.1102    2.0146 C   0  0  0  0  0  0  0  0  0  0  0  0
   -0.4320    3.3615    2.1089 C   0  0  0  0  0  0  0  0  0  0  0  0
    1.2901   -2.3629    0.2279 C   0  0  0  0  0  0  0  0  0  0  0  0
    0.0737   -3.5467   -0.4192 C   0  0  0  0  0  0  0  0  0  0  0  0
    0.5292   -5.3004   -0.5552 C   0  0  0  0  0  0  0  0  0  0  0  0
    2.1622   -5.8700   -0.0200 C   0  0  0  0  0  0  0  0  0  0  0  0
    3.2444   -4.7363    0.8847 C   0  0  0  0  0  0  0  0  0  0  0  0
    2.7898   -2.9855    1.0393 C   0  0  0  0  0  0  0  0  0  0  0  0
  1  2  1  0        0
  2  3  1  0        0
  3  4  1  0        0
  2  5  2  0        0
  4  6  1  0        0
  4  7  1  0        0
  6  8  1  0        0
  8  9  1  0        0
  4 10  1  0        0
 10 11  2  0        0
 11 12  1  0        0
 12 13  2  0        0
 13 14  1  0        0
 14 15  2  0        0
 15 10  1  0        0
 16 17  2  0        0
 17 18  1  0        0
 18 19  2  0        0
 19 20  1  0        0
 20 21  2  0        0
 21 16  1  0        0
 16  6  1  0        0
M  CHG  1   1  -1
M  END
$$$$
