MVA-4.sdf
  ChemDraw01252323283D

 15 15  0  0  1  0  0  0  0  0999 V2000
   -2.4428   -2.6874   -1.9686 O   0  5  0  0  0  0  0  0  0  0  0  0
   -2.5051   -1.2768   -0.8316 C   0  0  0  0  0  0  0  0  0  0  0  0
   -1.8380   -1.4831    0.9871 C   0  0  0  0  0  0  0  0  0  0  0  0
    0.1319   -1.3331    1.1237 C   0  0  0  0  0  0  0  0  0  0  0  0
   -3.1935    0.1664   -1.3367 O   0  0  0  0  0  0  0  0  0  0  0  0
    1.0240   -2.6588   -0.0486 C   0  0  0  0  0  0  0  0  0  0  0  0
    0.5771   -1.7945    2.8536 O   0  0  0  0  0  0  0  0  0  0  0  0
    1.6227   -2.0742   -1.8477 C   0  0  0  0  0  0  0  0  0  0  0  0
    1.9425   -3.5948   -2.8536 O   0  0  0  0  0  0  0  0  0  0  0  0
    0.7580    0.4665    0.7658 C   0  0  0  0  0  0  0  0  0  0  0  0
    2.5230    0.8019    0.8615 C   0  0  0  0  0  0  0  0  0  0  0  0
    3.1935    2.3603    0.2584 C   0  0  0  0  0  0  0  0  0  0  0  0
    2.0588    3.5948   -0.4115 C   0  0  0  0  0  0  0  0  0  0  0  0
    0.2782    3.3744   -0.1953 C   0  0  0  0  0  0  0  0  0  0  0  0
   -0.3872    1.7833    0.3295 C   0  0  0  0  0  0  0  0  0  0  0  0
  1  2  1  0        0
  2  3  1  0        0
  3  4  1  0        0
  2  5  2  0        0
  4  6  1  0        0
  4  7  1  0        0
  6  8  1  0        0
  8  9  1  0        0
  4 10  1  0        0
 10 11  2  0        0
 11 12  1  0        0
 12 13  2  0        0
 13 14  1  0        0
 14 15  2  0        0
 15 10  1  0        0
M  CHG  1   1  -1
M  END
$$$$
