MVA-6.sdf
  ChemDraw01262300003D

 12 11  0  0  1  0  0  0  0  0999 V2000
   -4.0519   -0.5520   -0.3966 C   0  0  0  0  0  0  0  0  0  0  0  0
   -3.0205   -0.1438    0.7959 C   0  0  0  0  0  0  0  0  0  0  0  0
   -1.5712   -1.0818    1.0541 C   0  0  0  0  0  0  0  0  0  0  0  0
   -0.1725   -0.2321    0.3671 C   0  0  0  0  0  0  0  0  0  0  0  0
   -3.3210    1.0329    1.6786 O   0  0  0  0  0  0  0  0  0  0  0  0
    1.2713   -1.2309    0.6279 C   0  0  0  0  0  0  0  0  0  0  0  0
    0.0227    1.2309    1.1223 O   0  0  0  0  0  0  0  0  0  0  0  0
    2.6507   -0.5359   -0.2464 C   0  0  0  0  0  0  0  0  0  0  0  0
    4.0519   -0.9301    0.5468 O   0  0  0  0  0  0  0  0  0  0  0  0
   -0.4835    0.0723   -1.6786 N   0  0  0  0  0  0  0  0  0  0  0  0
   -2.1807   -0.2061   -1.6786 N   0  3  0  0  0  0  0  0  0  0  0  0
   -3.8781   -0.4844   -1.6786 N   0  5  0  0  0  0  0  0  0  0  0  0
 11 12  2  0        0
 10 11  2  0        0
  4 10  1  0        0
  1  2  1  0        0
  2  3  1  0        0
  3  4  1  0        0
  2  5  2  0        0
  4  6  1  0        0
  4  7  1  0        0
  6  8  1  0        0
  8  9  1  0        0
M  CHG  2  11   1  12  -1
A    1
\sO-
M  STY  1   1 SUP
M  SLB  1   1   1
M  SAL   1  3  10  11  12
M  SBL   1  1   3
M  SMT   1 \sN3
M  SBV   1   3    0.3110   -0.3043
M  END
$$$$
