MVA-2.sdf
  ChemDraw01252323413D

 11 10  0  0  1  0  0  0  0  0999 V2000
   -3.1801   -1.7405    0.9161 O   0  5  0  0  0  0  0  0  0  0  0  0
   -2.7740   -1.0239   -0.3225 C   0  0  0  0  0  0  0  0  0  0  0  0
   -1.4178   -1.4234   -1.0607 C   0  0  0  0  0  0  0  0  0  0  0  0
   -0.1710   -0.6113   -0.4139 C   0  0  0  0  0  0  0  0  0  0  0  0
   -3.5629   -0.0254   -0.8393 O   0  0  0  0  0  0  0  0  0  0  0  0
   -0.1430    0.8663   -1.0878 C   0  0  0  0  0  0  0  0  0  0  0  0
    1.1582   -1.4712   -0.7717 C   0  0  0  0  0  0  0  0  0  0  0  0
   -0.3446   -0.5084    1.0878 O   0  0  0  0  0  0  0  0  0  0  0  0
    2.4977   -0.8219   -0.1305 C   0  0  0  0  0  0  0  0  0  0  0  0
    3.5629   -1.8998   -0.1029 O   0  0  0  0  0  0  0  0  0  0  0  0
    0.7226    1.8998   -0.1862 C   0  0  0  0  0  0  0  0  0  0  0  0
  1  2  1  0        0
  2  3  1  0        0
  3  4  1  0        0
  2  5  2  0        0
  4  6  1  0        0
  4  7  1  0        0
  4  8  1  0        0
  7  9  1  0        0
  9 10  1  0        0
  6 11  1  0        0
M  CHG  1   1  -1
M  END
$$$$
