MVA-11.sdf
  ChemDraw02192309013D

 18 18  0  0  1  0  0  0  0  0999 V2000
   -1.5372   -4.4434    1.0159 O   0  5  0  0  0  0  0  0  0  0  0  0
   -1.5305   -3.8403   -0.3804 C   0  0  0  0  0  0  0  0  0  0  0  0
   -0.1139   -3.4913   -1.1083 C   0  0  0  0  0  0  0  0  0  0  0  0
    0.7540   -2.4536   -0.1504 C   0  0  0  0  0  0  0  0  0  0  0  0
   -2.7412   -3.5851   -1.0407 O   0  0  0  0  0  0  0  0  0  0  0  0
    2.2247   -2.1579   -0.8548 C   0  0  0  0  0  0  0  0  0  0  0  0
    0.9718   -3.0996    1.2397 O   0  0  0  0  0  0  0  0  0  0  0  0
    3.0031   -0.9512   -0.0269 C   0  0  0  0  0  0  0  0  0  0  0  0
    4.3889   -0.6995   -0.6697 O   0  0  0  0  0  0  0  0  0  0  0  0
   -0.0531   -1.0488    0.0338 C   0  0  0  0  0  0  0  0  0  0  0  0
   -3.6171    3.1513   -0.1175 C   0  0  0  0  0  0  0  0  0  0  0  0
   -4.1520    2.0842   -1.0420 C   0  0  0  0  0  0  0  0  0  0  0  0
   -3.3784    0.8029   -1.2397 C   0  0  0  0  0  0  0  0  0  0  0  0
   -2.0803    0.5793   -0.5008 C   0  0  0  0  0  0  0  0  0  0  0  0
   -1.5479    1.6446    0.4281 C   0  0  0  0  0  0  0  0  0  0  0  0
   -2.3158    2.9314    0.6162 C   0  0  0  0  0  0  0  0  0  0  0  0
   -1.2809   -0.7917   -0.7038 C   0  0  0  0  0  0  0  0  0  0  0  0
   -4.3889    4.4434    0.0780 O   0  0  0  0  0  0  0  0  0  0  0  0
  1  2  1  0        0
  2  3  1  0        0
  3  4  1  0        0
  2  5  2  0        0
  4  6  1  0        0
  4  7  1  0        0
  6  8  1  0        0
  8  9  1  0        0
  4 10  1  0        0
 11 12  2  0        0
 12 13  1  0        0
 13 14  2  0        0
 14 15  1  0        0
 15 16  2  0        0
 16 11  1  0        0
 10 17  2  0        0
 17 14  1  0        0
 11 18  1  0        0
M  CHG  1   1  -1
M  END
$$$$
