MVA-10.sdf
  ChemDraw01262300463D

 21 22  0  0  1  0  0  0  0  0999 V2000
   -3.4875   -5.3352    1.4747 O   0  5  0  0  0  0  0  0  0  0  0  0
   -2.8910   -5.1331    0.1002 C   0  0  0  0  0  0  0  0  0  0  0  0
   -1.3260   -5.4349   -0.1787 C   0  0  0  0  0  0  0  0  0  0  0  0
   -0.3768   -4.1929    0.3419 C   0  0  0  0  0  0  0  0  0  0  0  0
   -3.6844   -4.6607   -0.9444 O   0  0  0  0  0  0  0  0  0  0  0  0
    1.1620   -4.6097   -0.0705 C   0  0  0  0  0  0  0  0  0  0  0  0
   -0.4736   -4.1022    1.8757 O   0  0  0  0  0  0  0  0  0  0  0  0
    2.2727   -3.7489    0.7888 C   0  0  0  0  0  0  0  0  0  0  0  0
    3.6844   -4.2218    0.3964 O   0  0  0  0  0  0  0  0  0  0  0  0
   -0.7358   -2.7821   -0.2864 N   0  0  0  0  0  0  0  0  0  0  0  0
   -0.3599   -2.3390   -1.6060 N   0  0  0  0  0  0  0  0  0  0  0  0
   -0.9151   -1.0374   -1.8757 N   0  0  0  0  0  0  0  0  0  0  0  0
   -1.7216   -0.6601   -0.7047 C   0  0  0  0  0  0  0  0  0  0  0  0
   -1.5430   -1.7257    0.3421 C   0  0  0  0  0  0  0  0  0  0  0  0
   -3.0030    0.8160   -0.8092 S   0  0  0  0  0  0  0  0  0  0  0  0
   -2.4385    2.4913    0.0374 C   0  0  0  0  0  0  0  0  0  0  0  0
   -3.5035    4.8017    0.6146 C   0  0  0  0  0  0  0  0  0  0  0  0
   -3.6372    3.3275    0.3777 C   0  0  0  0  0  0  0  0  0  0  0  0
   -1.0700    3.0742    0.2705 C   0  0  0  0  0  0  0  0  0  0  0  0
   -0.9401    4.5454    0.5584 C   0  0  0  0  0  0  0  0  0  0  0  0
   -2.1450    5.4349    0.6571 C   0  0  0  0  0  0  0  0  0  0  0  0
  1  2  1  0        0
  2  3  1  0        0
  3  4  1  0        0
  2  5  2  0        0
  4  6  1  0        0
  4  7  1  0        0
  6  8  1  0        0
  8  9  1  0        0
  4 10  1  0        0
 10 11  1  0        0
 11 12  2  0        0
 12 13  1  0        0
 13 14  2  0        0
 14 10  1  0        0
 13 15  1  0        0
 15 16  1  0        0
 17 18  2  0        0
 18 16  1  0        0
 16 19  2  0        0
 19 20  1  0        0
 20 21  2  0        0
 21 17  1  0        0
M  CHG  1   1  -1
M  END
$$$$
