MVA-7.sdf
  ChemDraw01262300063D

 16 16  0  0  1  0  0  0  0  0999 V2000
   -3.5328   -2.2988    0.7011 O   0  5  0  0  0  0  0  0  0  0  0  0
   -2.7898   -1.4360   -0.2853 C   0  0  0  0  0  0  0  0  0  0  0  0
   -1.4639   -2.0062   -1.0165 C   0  0  0  0  0  0  0  0  0  0  0  0
   -0.1074   -1.4742   -0.2544 C   0  0  0  0  0  0  0  0  0  0  0  0
   -3.2297   -0.1439   -0.5515 O   0  0  0  0  0  0  0  0  0  0  0  0
    1.0119   -2.6194   -0.6185 C   0  0  0  0  0  0  0  0  0  0  0  0
   -0.3437   -1.4175    1.2590 O   0  0  0  0  0  0  0  0  0  0  0  0
    2.4692   -2.0497   -1.1081 C   0  0  0  0  0  0  0  0  0  0  0  0
    3.3936   -3.2650   -1.2590 O   0  0  0  0  0  0  0  0  0  0  0  0
    0.1525    0.0285   -0.8701 C   0  0  0  0  0  0  0  0  0  0  0  0
    1.2885    1.0028   -0.2672 C   0  0  0  0  0  0  0  0  0  0  0  0
    2.2239    0.6671    0.8542 C   0  0  0  0  0  0  0  0  0  0  0  0
    3.3370    1.6092    1.1920 C   0  0  0  0  0  0  0  0  0  0  0  0
    3.5328    2.8570    0.3895 C   0  0  0  0  0  0  0  0  0  0  0  0
    2.5141    3.2650   -0.6244 C   0  0  0  0  0  0  0  0  0  0  0  0
    1.4001    2.3250   -0.9570 C   0  0  0  0  0  0  0  0  0  0  0  0
  1  2  1  0        0
  2  3  1  0        0
  3  4  1  0        0
  2  5  2  0        0
  4  6  1  0        0
  4  7  1  0        0
  6  8  1  0        0
  8  9  1  0        0
  4 10  1  0        0
 10 11  1  0        0
 11 12  2  0        0
 12 13  1  0        0
 13 14  2  0        0
 14 15  1  0        0
 15 16  2  0        0
 16 11  1  0        0
M  CHG  1   1  -1
M  END
$$$$
