MVA-8.sdf
  ChemDraw01262300103D

 17 17  0  0  1  0  0  0  0  0999 V2000
   -4.0984   -2.2908    0.5738 O   0  5  0  0  0  0  0  0  0  0  0  0
   -3.3149   -1.4748   -0.2959 C   0  0  0  0  0  0  0  0  0  0  0  0
   -2.0627   -2.0533   -0.9639 C   0  0  0  0  0  0  0  0  0  0  0  0
   -0.7908   -1.5365   -0.2322 C   0  0  0  0  0  0  0  0  0  0  0  0
   -3.6618   -0.2228   -0.5061 O   0  0  0  0  0  0  0  0  0  0  0  0
    0.2896   -2.5823   -0.6217 C   0  0  0  0  0  0  0  0  0  0  0  0
   -1.0263   -1.5646    1.2042 O   0  0  0  0  0  0  0  0  0  0  0  0
    1.6843   -2.0695   -1.0647 C   0  0  0  0  0  0  0  0  0  0  0  0
    2.5172   -3.2524   -1.2042 O   0  0  0  0  0  0  0  0  0  0  0  0
   -0.6002   -0.0786   -0.7504 C   0  0  0  0  0  0  0  0  0  0  0  0
    0.5309    0.8182   -0.2413 C   0  0  0  0  0  0  0  0  0  0  0  0
    1.4863    0.4785    0.7515 C   0  0  0  0  0  0  0  0  0  0  0  0
    2.6077    1.3285    0.9328 C   0  0  0  0  0  0  0  0  0  0  0  0
    2.7836    2.4752    0.1151 C   0  0  0  0  0  0  0  0  0  0  0  0
    1.7363    2.9172   -0.7318 C   0  0  0  0  0  0  0  0  0  0  0  0
    0.6184    2.0655   -0.9101 C   0  0  0  0  0  0  0  0  0  0  0  0
    4.0984    3.2524    0.1012 C   0  0  0  0  0  0  0  0  0  0  0  0
  1  2  1  0        0
  2  3  1  0        0
  3  4  1  0        0
  2  5  2  0        0
  4  6  1  0        0
  4  7  1  0        0
  6  8  1  0        0
  8  9  1  0        0
  4 10  1  0        0
 10 11  1  0        0
 11 12  2  0        0
 12 13  1  0        0
 13 14  2  0        0
 14 15  1  0        0
 15 16  2  0        0
 16 11  1  0        0
 14 17  1  0        0
M  CHG  1   1  -1
M  END
$$$$
