1.sdf
  ChemDraw03242316083D

 11 10  0  0  1  0  0  0  0  0999 V2000
   -1.6749    0.0815    1.5491 C   0  0  0  0  0  0  0  0  0  0  0  0
   -0.9099   -0.6538    0.4122 C   0  0  0  0  0  0  0  0  0  0  0  0
    0.0039    0.3748   -0.3703 C   0  0  0  0  0  0  0  0  0  0  0  0
    0.9715   -0.4908   -1.2739 C   0  0  0  0  0  0  0  0  0  0  0  0
    1.8132    0.4023   -2.2710 C   0  0  0  0  0  0  0  0  0  0  0  0
    2.9336   -0.4099   -2.7887 O   0  0  0  0  0  0  0  0  0  0  0  0
    0.7915    1.1642    0.5983 O   0  0  0  0  0  0  0  0  0  0  0  0
   -0.8546    1.3550   -1.2688 C   0  0  0  0  0  0  0  0  0  0  0  0
   -1.1718    0.0992    2.7887 O   0  0  0  0  0  0  0  0  0  0  0  0
   -2.9336    0.7416    1.2574 O   0  5  0  0  0  0  0  0  0  0  0  0
   -1.9453   -1.3550   -0.5571 C   0  0  0  0  0  0  0  0  0  0  0  0
  1  2  1  0        0
  2  3  1  0        0
  3  4  1  0        0
  4  5  1  0        0
  5  6  1  0        0
  3  7  1  0        0
  3  8  1  0        0
  1  9  2  0        0
  1 10  1  0        0
  2 11  1  0        0
M  CHG  1  10  -1
M  END
$$$$
