18.sdf
  ChemDraw03242316193D

 24 25  0  0  1  0  0  0  0  0999 V2000
   -1.3429    4.6463    0.4726 C   0  0  0  0  0  0  0  0  0  0  0  0
    0.0348    3.8793    0.8429 C   0  0  0  0  0  0  0  0  0  0  0  0
    1.3341    4.7393    0.2911 C   0  0  0  0  0  0  0  0  0  0  0  0
    2.6904    3.9642    0.8243 C   0  0  0  0  0  0  0  0  0  0  0  0
    4.0026    4.9524    0.6818 C   0  0  0  0  0  0  0  0  0  0  0  0
    5.2889    4.1312    0.8928 O   0  0  0  0  0  0  0  0  0  0  0  0
    1.2902    6.1541    0.9022 O   0  0  0  0  0  0  0  0  0  0  0  0
    1.3989    4.8933   -1.3520 C   0  0  0  0  0  0  0  0  0  0  0  0
   -1.8505    5.6030    1.3520 O   0  0  0  0  0  0  0  0  0  0  0  0
   -2.0822    4.2948   -0.7995 O   0  5  0  0  0  0  0  0  0  0  0  0
   -0.0884    2.3291    0.3833 C   0  0  0  0  0  0  0  0  0  0  0  0
   -0.9054    1.3055    1.1196 C   0  0  0  0  0  0  0  0  0  0  0  0
   -0.8571    0.0913    0.2905 N   0  0  0  0  0  0  0  0  0  0  0  0
    0.0056    0.3281   -0.8395 N   0  0  0  0  0  0  0  0  0  0  0  0
    0.4785    1.6886   -0.8162 N   0  0  0  0  0  0  0  0  0  0  0  0
   -1.6846   -1.1932    0.5846 C   0  0  0  0  0  0  0  0  0  0  0  0
   -3.0975   -1.0271    1.0671 C   0  0  0  0  0  0  0  0  0  0  0  0
   -4.0058   -2.2234    1.0942 C   0  0  0  0  0  0  0  0  0  0  0  0
   -3.4680   -3.6006    0.8194 C   0  0  0  0  0  0  0  0  0  0  0  0
   -1.9969   -3.7859    0.5640 C   0  0  0  0  0  0  0  0  0  0  0  0
   -1.1331   -2.5720    0.3414 C   0  0  0  0  0  0  0  0  0  0  0  0
   -4.4762   -4.8576    0.6542 C   0  0  0  0  0  0  0  0  0  0  0  0
   -3.6422   -6.1541    0.4799 F   0  0  0  0  0  0  0  0  0  0  0  0
   -5.2889   -4.5901   -0.6395 F   0  0  0  0  0  0  0  0  0  0  0  0
  1  2  1  0        0
  2  3  1  0        0
  3  4  1  0        0
  4  5  1  0        0
  5  6  1  0        0
  3  7  1  0        0
  3  8  1  0        0
  1  9  2  0        0
  1 10  1  0        0
  2 11  1  0        0
 11 12  2  0        0
 12 13  1  0        0
 13 14  1  0        0
 14 15  2  0        0
 15 11  1  0        0
 13 16  1  0        0
 16 17  2  0        0
 17 18  1  0        0
 18 19  2  0        0
 19 20  1  0        0
 20 21  2  0        0
 21 16  1  0        0
 19 22  1  0        0
 22 23  1  0        0
 22 24  1  0        0
M  CHG  1  10  -1
M  END
$$$$
