29.sdf
  ChemDraw03242316233D

 19 19  0  0  1  0  0  0  0  0999 V2000
   -2.7701    2.7810    0.5612 C   0  0  0  0  0  0  0  0  0  0  0  0
   -1.2425    2.2095    0.3902 C   0  0  0  0  0  0  0  0  0  0  0  0
   -0.2186    3.3955   -0.1765 C   0  0  0  0  0  0  0  0  0  0  0  0
    1.3380    2.8179   -0.0292 C   0  0  0  0  0  0  0  0  0  0  0  0
    2.4049    3.9509   -0.6269 C   0  0  0  0  0  0  0  0  0  0  0  0
    3.7971    3.7282    0.0342 O   0  0  0  0  0  0  0  0  0  0  0  0
   -0.3812    4.6935    0.6669 O   0  0  0  0  0  0  0  0  0  0  0  0
   -0.5477    3.7336   -1.7756 C   0  0  0  0  0  0  0  0  0  0  0  0
   -3.1485    3.3888    1.7756 O   0  0  0  0  0  0  0  0  0  0  0  0
   -3.7971    2.6436   -0.5633 O   0  5  0  0  0  0  0  0  0  0  0  0
   -1.1259    0.9259   -0.6230 C   0  0  0  0  0  0  0  0  0  0  0  0
   -0.7666   -0.3619   -0.0279 C   0  0  0  0  0  0  0  0  0  0  0  0
   -0.3654   -1.6172   -1.0042 C   0  0  0  0  0  0  0  0  0  0  0  0
    0.8914   -2.4579   -0.3803 C   0  0  0  0  0  0  0  0  0  0  0  0
    0.6892   -3.8839    0.0984 C   0  0  0  0  0  0  0  0  0  0  0  0
    1.8956   -4.6935    0.5364 C   0  0  0  0  0  0  0  0  0  0  0  0
    3.2882   -4.0932    0.4800 C   0  0  0  0  0  0  0  0  0  0  0  0
    3.4557   -2.6200    0.1578 C   0  0  0  0  0  0  0  0  0  0  0  0
    2.2555   -1.7989   -0.2778 C   0  0  0  0  0  0  0  0  0  0  0  0
  1  2  1  0        0
  2  3  1  0        0
  3  4  1  0        0
  4  5  1  0        0
  5  6  1  0        0
  3  7  1  0        0
  3  8  1  0        0
  1  9  2  0        0
  1 10  1  0        0
  2 11  1  0        0
 11 12  2  0        0
 12 13  1  0        0
 13 14  1  0        0
 14 15  2  0        0
 15 16  1  0        0
 16 17  2  0        0
 17 18  1  0        0
 18 19  2  0        0
 19 14  1  0        0
M  CHG  1  10  -1
M  END
$$$$
