32.sdf
  ChemDraw03242316233D

 19 19  0  0  1  0  0  0  0  0999 V2000
   -2.7587    3.7001    0.7288 C   0  0  0  0  0  0  0  0  0  0  0  0
   -1.2320    3.1901    0.8109 C   0  0  0  0  0  0  0  0  0  0  0  0
   -0.2478    4.1857   -0.0401 C   0  0  0  0  0  0  0  0  0  0  0  0
    1.2900    3.8089    0.3784 C   0  0  0  0  0  0  0  0  0  0  0  0
    2.3572    4.7285   -0.4574 C   0  0  0  0  0  0  0  0  0  0  0  0
    3.6783    4.7970    0.3102 O   0  0  0  0  0  0  0  0  0  0  0  0
   -0.5492    5.6371    0.3393 O   0  0  0  0  0  0  0  0  0  0  0  0
   -0.4550    3.9907   -1.6533 C   0  0  0  0  0  0  0  0  0  0  0  0
   -3.2250    4.6210    1.6533 O   0  0  0  0  0  0  0  0  0  0  0  0
   -3.6783    3.1591   -0.3294 O   0  5  0  0  0  0  0  0  0  0  0  0
   -1.1343    1.6724    0.2774 C   0  0  0  0  0  0  0  0  0  0  0  0
   -0.5262    0.6712    1.1119 C   0  0  0  0  0  0  0  0  0  0  0  0
   -0.5950   -0.8585    0.7187 C   0  0  0  0  0  0  0  0  0  0  0  0
   -1.7284   -1.3722   -0.1032 C   0  0  0  0  0  0  0  0  0  0  0  0
   -1.8178   -2.8259   -0.4224 C   0  0  0  0  0  0  0  0  0  0  0  0
   -0.7561   -3.7619    0.0476 C   0  0  0  0  0  0  0  0  0  0  0  0
    0.4090   -3.2434    0.8205 C   0  0  0  0  0  0  0  0  0  0  0  0
    0.4710   -1.7961    1.1761 C   0  0  0  0  0  0  0  0  0  0  0  0
   -0.8846   -5.6371   -0.3262 Cl  0  0  0  0  0  0  0  0  0  0  0  0
  1  2  1  0        0
  2  3  1  0        0
  3  4  1  0        0
  4  5  1  0        0
  5  6  1  0        0
  3  7  1  0        0
  3  8  1  0        0
  1  9  2  0        0
  1 10  1  0        0
  2 11  1  0        0
 11 12  2  0        0
 12 13  1  0        0
 13 14  2  0        0
 14 15  1  0        0
 15 16  2  0        0
 16 17  1  0        0
 17 18  2  0        0
 18 13  1  0        0
 16 19  1  0        0
M  CHG  1  10  -1
M  END
$$$$
