35.sdf
  ChemDraw03242316243D

 20 20  0  0  1  0  0  0  0  0999 V2000
   -2.7904    3.9345    0.7332 C   0  0  0  0  0  0  0  0  0  0  0  0
   -1.2289    3.4581    0.7919 C   0  0  0  0  0  0  0  0  0  0  0  0
   -0.2597    4.5086   -0.0528 C   0  0  0  0  0  0  0  0  0  0  0  0
    1.3123    4.1621    0.3517 C   0  0  0  0  0  0  0  0  0  0  0  0
    2.3733    5.1426   -0.4675 C   0  0  0  0  0  0  0  0  0  0  0  0
    3.7212    5.1861    0.2984 O   0  0  0  0  0  0  0  0  0  0  0  0
   -0.5922    5.9666    0.3654 O   0  0  0  0  0  0  0  0  0  0  0  0
   -0.4739    4.3487   -1.6912 C   0  0  0  0  0  0  0  0  0  0  0  0
   -3.2788    4.8388    1.6912 O   0  0  0  0  0  0  0  0  0  0  0  0
   -3.7212    3.3694   -0.3310 O   0  5  0  0  0  0  0  0  0  0  0  0
   -1.0814    1.9308    0.2298 C   0  0  0  0  0  0  0  0  0  0  0  0
   -0.4291    0.9326    1.0698 C   0  0  0  0  0  0  0  0  0  0  0  0
   -0.4516   -0.6257    0.6918 C   0  0  0  0  0  0  0  0  0  0  0  0
   -1.4886   -1.1640   -0.2697 C   0  0  0  0  0  0  0  0  0  0  0  0
   -1.6267   -2.6566   -0.4714 C   0  0  0  0  0  0  0  0  0  0  0  0
   -0.7042   -3.6092    0.2555 C   0  0  0  0  0  0  0  0  0  0  0  0
    0.3947   -3.0674    1.1426 C   0  0  0  0  0  0  0  0  0  0  0  0
    0.5232   -1.5748    1.3542 C   0  0  0  0  0  0  0  0  0  0  0  0
   -0.9284   -5.2140    0.0786 C   0  0  0  0  0  0  0  0  0  0  0  0
    0.4722   -5.9666   -0.3987 C   0  0  0  0  0  0  0  0  0  0  0  0
  1  2  1  0        0
  2  3  1  0        0
  3  4  1  0        0
  4  5  1  0        0
  5  6  1  0        0
  3  7  1  0        0
  3  8  1  0        0
  1  9  2  0        0
  1 10  1  0        0
  2 11  1  0        0
 11 12  2  0        0
 12 13  1  0        0
 13 14  2  0        0
 14 15  1  0        0
 15 16  2  0        0
 16 17  1  0        0
 17 18  2  0        0
 18 13  1  0        0
 16 19  1  0        0
 19 20  1  0        0
M  CHG  1  10  -1
M  END
$$$$
