38.sdf
  ChemDraw03242316313D

 20 20  0  0  1  0  0  0  0  0999 V2000
   -2.9878    4.0517    0.7926 C   0  0  0  0  0  0  0  0  0  0  0  0
   -1.4946    3.2343    0.7409 C   0  0  0  0  0  0  0  0  0  0  0  0
   -0.4090    3.9996   -0.3676 C   0  0  0  0  0  0  0  0  0  0  0  0
    1.1713    3.3728   -0.0496 C   0  0  0  0  0  0  0  0  0  0  0  0
    2.3363    4.0686   -1.1169 C   0  0  0  0  0  0  0  0  0  0  0  0
    3.7999    3.9839   -0.4328 O   0  0  0  0  0  0  0  0  0  0  0  0
   -0.4557    5.5965   -0.1428 O   0  0  0  0  0  0  0  0  0  0  0  0
   -0.8265    3.6381   -2.0082 C   0  0  0  0  0  0  0  0  0  0  0  0
   -3.7999    3.9859    2.0082 O   0  0  0  0  0  0  0  0  0  0  0  0
   -3.4720    4.9191   -0.4458 O   0  5  0  0  0  0  0  0  0  0  0  0
   -1.5765    1.6138    0.2294 C   0  0  0  0  0  0  0  0  0  0  0  0
   -0.8614    0.6005    1.1024 C   0  0  0  0  0  0  0  0  0  0  0  0
   -0.6537   -0.9739    0.5921 C   0  0  0  0  0  0  0  0  0  0  0  0
   -1.3345   -1.5151   -0.7197 C   0  0  0  0  0  0  0  0  0  0  0  0
   -1.2743   -3.0526   -1.0500 C   0  0  0  0  0  0  0  0  0  0  0  0
   -0.5058   -4.0313   -0.0856 C   0  0  0  0  0  0  0  0  0  0  0  0
    0.3255   -3.4530    1.1218 C   0  0  0  0  0  0  0  0  0  0  0  0
    0.2154   -1.9267    1.4933 C   0  0  0  0  0  0  0  0  0  0  0  0
   -2.0528   -0.5173   -1.7328 F   0  0  0  0  0  0  0  0  0  0  0  0
   -0.5104   -5.5965   -0.3844 F   0  0  0  0  0  0  0  0  0  0  0  0
  1  2  1  0        0
  2  3  1  0        0
  3  4  1  0        0
  4  5  1  0        0
  5  6  1  0        0
  3  7  1  0        0
  3  8  1  0        0
  1  9  2  0        0
  1 10  1  0        0
  2 11  1  0        0
 11 12  2  0        0
 12 13  1  0        0
 13 14  2  0        0
 14 15  1  0        0
 15 16  2  0        0
 16 17  1  0        0
 17 18  2  0        0
 18 13  1  0        0
 14 19  1  0        0
 16 20  1  0        0
M  CHG  1  10  -1
M  END
$$$$
