39.sdf
  ChemDraw03242316303D

 22 22  0  0  1  0  0  0  0  0999 V2000
    1.8960    3.7096   -0.7844 C   0  0  0  0  0  0  0  0  0  0  0  0
    0.5956    3.3299    0.0228 C   0  0  0  0  0  0  0  0  0  0  0  0
   -0.4932    4.5016   -0.0635 C   0  0  0  0  0  0  0  0  0  0  0  0
   -1.7452    4.0545    0.8277 C   0  0  0  0  0  0  0  0  0  0  0  0
   -2.6638    5.3282    1.1491 C   0  0  0  0  0  0  0  0  0  0  0  0
   -2.8952    5.3960    2.6256 O   0  0  0  0  0  0  0  0  0  0  0  0
    0.0918    5.7505    0.5220 O   0  0  0  0  0  0  0  0  0  0  0  0
   -0.9678    4.7533   -1.5725 C   0  0  0  0  0  0  0  0  0  0  0  0
    2.8952    4.3958   -0.1773 O   0  0  0  0  0  0  0  0  0  0  0  0
    2.0349    3.3020   -2.1901 O   0  5  0  0  0  0  0  0  0  0  0  0
    0.0592    1.9474   -0.5149 C   0  0  0  0  0  0  0  0  0  0  0  0
   -0.1972    0.9365    0.4315 C   0  0  0  0  0  0  0  0  0  0  0  0
   -0.2862   -0.5483    0.0064 C   0  0  0  0  0  0  0  0  0  0  0  0
    0.2698   -0.9708   -1.2753 C   0  0  0  0  0  0  0  0  0  0  0  0
    0.1127   -2.3581   -1.6941 C   0  0  0  0  0  0  0  0  0  0  0  0
   -0.6505   -3.2850   -0.8677 C   0  0  0  0  0  0  0  0  0  0  0  0
   -1.0784   -2.9068    0.4742 C   0  0  0  0  0  0  0  0  0  0  0  0
   -0.8833   -1.5282    0.9096 C   0  0  0  0  0  0  0  0  0  0  0  0
   -1.1752   -4.6097   -1.5287 C   0  0  0  0  0  0  0  0  0  0  0  0
   -1.5229   -5.7505   -0.4583 C   0  0  0  0  0  0  0  0  0  0  0  0
   -0.1546   -5.1774   -2.6256 C   0  0  0  0  0  0  0  0  0  0  0  0
   -2.5249   -4.1409   -2.2513 C   0  0  0  0  0  0  0  0  0  0  0  0
  1  2  1  0        0
  2  3  1  0        0
  3  4  1  0        0
  4  5  1  0        0
  5  6  1  0        0
  3  7  1  0        0
  3  8  1  0        0
  1  9  2  0        0
  1 10  1  0        0
  2 11  1  0        0
 11 12  2  0        0
 12 13  1  0        0
 13 14  2  0        0
 14 15  1  0        0
 15 16  2  0        0
 16 17  1  0        0
 17 18  2  0        0
 18 13  1  0        0
 16 19  1  0        0
 19 20  1  0        0
 19 21  1  0        0
 19 22  1  0        0
M  CHG  1  10  -1
M  END
$$$$
