6.sdf
  ChemDraw03242316143D

 16 15  0  0  1  0  0  0  0  0999 V2000
   -2.8004    3.2151    0.6193 C   0  0  0  0  0  0  0  0  0  0  0  0
   -1.3628    2.4440    0.6170 C   0  0  0  0  0  0  0  0  0  0  0  0
   -0.2662    3.3938   -0.1863 C   0  0  0  0  0  0  0  0  0  0  0  0
    1.2456    3.0998    0.4286 C   0  0  0  0  0  0  0  0  0  0  0  0
    2.3437    4.0514   -0.3702 C   0  0  0  0  0  0  0  0  0  0  0  0
    3.5908    4.2610    0.5251 O   0  0  0  0  0  0  0  0  0  0  0  0
   -0.6271    4.8788    0.0678 O   0  0  0  0  0  0  0  0  0  0  0  0
   -0.2881    3.1103   -1.8207 C   0  0  0  0  0  0  0  0  0  0  0  0
   -3.3118    3.7293    1.8207 O   0  0  0  0  0  0  0  0  0  0  0  0
   -3.5908    3.3777   -0.6708 O   0  5  0  0  0  0  0  0  0  0  0  0
   -1.5631    0.9545   -0.0854 C   0  0  0  0  0  0  0  0  0  0  0  0
   -0.1734    0.0481   -0.0926 C   0  0  0  0  0  0  0  0  0  0  0  0
   -0.5517   -1.5409   -0.3898 C   0  0  0  0  0  0  0  0  0  0  0  0
    0.8002   -2.4879   -0.2185 C   0  0  0  0  0  0  0  0  0  0  0  0
    0.3675   -4.0848   -0.0925 C   0  0  0  0  0  0  0  0  0  0  0  0
    1.5874   -4.8788    0.7036 C   0  0  0  0  0  0  0  0  0  0  0  0
  1  2  1  0        0
  2  3  1  0        0
  3  4  1  0        0
  4  5  1  0        0
  5  6  1  0        0
  3  7  1  0        0
  3  8  1  0        0
  1  9  2  0        0
  1 10  1  0        0
  2 11  1  0        0
 11 12  1  0        0
 12 13  1  0        0
 13 14  1  0        0
 14 15  1  0        0
 15 16  1  0        0
M  CHG  1  10  -1
M  END
$$$$
